LTspice 24.0.9 for Windows
Circuit: * C:\Users\Max\Desktop\EET 24-25\4o semestre\Disseny\Proyecto\Power_stage.asc
Start Time: Mon Mar 24 23:48:12 2025
solver = Normal
Maximum thread count: 8
tnom = 27
temp = 27
method = modified trap
Direct Newton iteration failed to find .op point.  (Use ".option noopiter" to skip.)
Starting Gmin stepping
Gmin = 10
Gmin = 1.07374
Gmin = 0.115292
Gmin = 0.0123794
Gmin = 0.00132923
Gmin = 0.000142725
Gmin = 1.5325e-05
Gmin = 1.6455e-06
Gmin = 1.76685e-07
Gmin = 1.89714e-08
Gmin = 2.03704e-09
Gmin = 2.18725e-10
Gmin = 2.34854e-11
Gmin = 2.52173e-12
Gmin = 2.70769e-13
Gmin = 0
Gmin stepping succeeded in finding the operating point.

Heightened Def Con from 0.000151917 +++++++++to 0.000151917
Heightened Def Con from 0.000165407 ++++++++++to 0.000165407
Total elapsed time: 20.112 seconds.

